/*--------------------------------*- C++ -*----------------------------------*\
  =========                 |
  \\      /  F ield         | OpenFOAM: The Open Source CFD Toolbox
   \\    /   O peration     | Website:  https://openfoam.org
    \\  /    A nd           | Version:  dev
     \\/     M anipulation  |
\*---------------------------------------------------------------------------*/
FoamFile
{
    version     2.0;
    format      ascii;
    class       dictionary;
    location    "constant";
    object      dsmcProperties;
}
// * * * * * * * * * * * * * * * * * * * * * * * * * * * * * * * * * * * * * //


// General Properties
// ~~~~~~~~~~~~~~~~~~

nEquivalentParticles            10;


// Wall Interaction Model
// ~~~~~~~~~~~~~~~~~~~~~~

WallInteractionModel            SpecularReflection;


// Binary Collision Model
// ~~~~~~~~~~~~~~~~~~~~~~

BinaryCollisionModel            none;

LarsenBorgnakkeVariableHardSphereCoeffs
{
    Tref                        273;
    relaxationCollisionNumber   5.0;
}


// Inflow Boundary Model
// ~~~~~~~~~~~~~~~~~~~~~
InflowBoundaryModel             FreeStream;

FreeStreamCoeffs
{
    numberDensities
    {
        electron        1.0e18;
        Dion            1.0e18;
    };
}


// Molecular species
// ~~~~~~~~~~~~~~~~~

typeIdList                      (electron Dion);

moleculeProperties
{
    electron
    {
        mass                            9.109382616e-31;
        diameter                        4.17e-15;
        internalDegreesOfFreedom        2;
        omega                           0.74;
        charge                          -1.602e-19;
    }

    Dion
    {
        mass                            3.34e-27;
        diameter                        4.07e-15;
        internalDegreesOfFreedom        2;
        omega                           0.77;
        charge                          1.602e-19;
    }
}


// ************************************************************************* //
