/*--------------------------------*- C++ -*----------------------------------*\
  =========                 |
  \\      /  F ield         | OpenFOAM: The Open Source CFD Toolbox
   \\    /   O peration     | Website:  https://openfoam.org
    \\  /    A nd           | Version:  dev
     \\/     M anipulation  |
\*---------------------------------------------------------------------------*/
FoamFile
{
    version     2.0;
    format      ascii;
    class       volVectorField;
    location    "0";
    object      B;
}
// * * * * * * * * * * * * * * * * * * * * * * * * * * * * * * * * * * * * * //

dimensions      [ 1 0 -2 0 0 -1 0 ];

internalField   uniform ( 0 0 2 );

boundaryField
{
    plasma
    {
        type            calculated;
        value           uniform ( 0 0 2 );
    }
    wall
    {
        type            calculated;
        value           uniform ( 0 0 2 );
    }
    side_x0
    {
        type            cyclic;
    }
    side_x1
    {
        type            cyclic;
    }
    side_y0
    {
        type            cyclic;
    }
    side_y1
    {
        type            cyclic;
    }
}


// ************************************************************************* //
